
Spectre (R) Circuit Simulator
Version 18.1.0.421.isr9 32bit -- 17 Jul 2019
Copyright (C) 1989-2019 Cadence Design Systems, Inc. All rights reserved worldwide. Cadence and Spectre are registered trademarks of Cadence Design Systems, Inc. All others are the property of their respective holders.

Includes RSA BSAFE(R) Cryptographic or Security Protocol Software from RSA Security, Inc.

User: amiya_1   Host: n02-hera.olympus.ece.tamu.edu   HostID: A8C00C02   PID: 32001
Memory  available: 365.4809 GB  physical: 540.7437 GB
Linux   : CentOS Linux release 7.6.1810 (Core) 
CPU Type: Intel(R) Xeon(R) CPU E5-2650 v3 @ 2.30GHz
        Socket: Processors [Frequency] (Hyperthreaded Processor)
        0:       0 [1258.9] ( 20 ),  2 [1358.9] ( 22 ),  4 [1785.1] ( 24 )
                 6 [1207.4] ( 26 ),  8 [2883.8] ( 28 ), 10 [1300.1] ( 30 )
                12 [1278.2] ( 32 ), 14 [1226.2] ( 34 ), 16 [1200.0] ( 36 )
                18 [1200.0] ( 38 )
        1:       1 [1200.0] ( 21 ),  3 [1844.7] ( 23 ),  5 [1200.0] ( 25 )
                 7 [1215.1] ( 27 ),  9 [1277.5] ( 29 ), 11 [1252.1] ( 31 )
                13 [2743.9] ( 33 ), 15 [1201.0] ( 35 ), 17 [1389.9] ( 37 )
                19 [1205.6] ( 39 )
        
System load averages (1min, 5min, 15min) : 6.8 %, 5.1 %, 3.6 %
Hyperthreading is enabled
Affinity is set by user to processors:  8 28 

Simulating `simcap.spi' on n02-hera.olympus.ece.tamu.edu at 2:20:59 PM, Sun Sep 22, 2019 (process id: 32001).
Current working directory: /home/grads/a/amiya_1/ECEN714/lab_01/cadence/cellcharacs
Command line:
    /opt/coe/cadence/SPECTRE181/tools.lnx86/bin/spectre simcap.spi

Loading /opt/coe/cadence/SPECTRE181/tools.lnx86/cmi/lib/5.0/libinfineon_sh.so ...
Loading /opt/coe/cadence/SPECTRE181/tools.lnx86/cmi/lib/5.0/libphilips_o_sh.so ...
Loading /opt/coe/cadence/SPECTRE181/tools.lnx86/cmi/lib/5.0/libphilips_sh.so ...
Loading /opt/coe/cadence/SPECTRE181/tools.lnx86/cmi/lib/5.0/libsparam_sh.so ...
Loading /opt/coe/cadence/SPECTRE181/tools.lnx86/cmi/lib/5.0/libstmodels_sh.so ...
Reading file:  /home/grads/a/amiya_1/ECEN714/lab_01/cadence/cellcharacs/simcap.spi
Reading file:  /opt/coe/cadence/SPECTRE181/tools.lnx86/spectre/etc/configs/mapsubckt.cfg
Reading file:  /opt/coe/cadence/SPECTRE181/tools.lnx86/spectre/etc/configs/spectre.cfg
Reading file:  /home/grads/a/amiya_1/ECEN714/lab_01/cadence/cellcharacs/model18.spi
Reading file:  /home/grads/a/amiya_1/ECEN714/lab_01/cadence/cellcharacs/cell18.spi
Time for NDB Parsing: CPU = 81.7 ms, elapsed = 137.099 ms.
Time accumulated: CPU = 128.837 ms, elapsed = 137.106 ms.
Peak resident memory used = 45.6 Mbytes.

Time for Elaboration: CPU = 19.093 ms, elapsed = 19.093 ms.
Time accumulated: CPU = 148.14 ms, elapsed = 156.469 ms.
Peak resident memory used = 50.5 Mbytes.


Time for EDB Visiting: CPU = 999 us, elapsed = 995.159 us.
Time accumulated: CPU = 149.351 ms, elapsed = 157.728 ms.
Peak resident memory used = 51.1 Mbytes.


Warning from spectre during initial setup.
    WARNING (CMI-2426): X1.M8: `Pdiblc2' = -8.75063e-06 is negative.


Global user options:

Scoped user options:

Circuit inventory:
              nodes 11
            bsim3v3 12    
           resistor 1     
            vsource 3     

Analysis and control statement inventory:
                 ac 1     

Output statements:
             .probe 0     
           .measure 0     
               save 1     


Notice from spectre during initial setup.
    1 resistor is changed to resistance form because its value is less than 'rthresh'.
Warning from spectre during initial setup.
    WARNING (CMI-2426): X1.M8: `Pdiblc2' = -8.75063e-06 is negative.

Time for parsing: CPU = 5.903 ms, elapsed = 11.9078 ms.
Time accumulated: CPU = 155.431 ms, elapsed = 169.867 ms.
Peak resident memory used = 52.7 Mbytes.

~~~~~~~~~~~~~~~~~~~~~~
Pre-Simulation Summary
~~~~~~~~~~~~~~~~~~~~~~
~~~~~~~~~~~~~~~~~~~~~~

*******************************************
AC Analysis `Freq': freq = (10 Hz -> 1 GHz)
*******************************************
DC simulation time: CPU = 1.938 ms, elapsed = 980.139 us.

Opening the PSF file simcap.raw/Freq.ac ...
..............9..............8..............7..............6..............5..............4..............3..............2..............1..............0
Accumulated DC solution time =            0 s.
Intrinsic ac analysis time =              0 s.
Total time required for ac analysis `Freq': CPU = 16.06 ms, elapsed = 13.5319 ms.
Time accumulated: CPU = 186.328 ms, elapsed = 192.189 ms.
Peak resident memory used = 54.4 Mbytes.


Aggregate audit (2:21:00 PM, Sun Sep 22, 2019):
Time used: CPU = 193 ms, elapsed = 196 ms, util. = 98.2%.
Time spent in licensing: elapsed = 22.6 ms, percentage of total = 11.5%.
Peak memory used = 55 Mbytes.
Simulation started at: 2:20:59 PM, Sun Sep 22, 2019, ended at: 2:21:00 PM, Sun Sep 22, 2019, with elapsed time (wall clock): 196 ms.
spectre completes with 0 errors, 2 warnings, and 2 notices.
