
Spectre (R) Circuit Simulator
Version 18.1.0.421.isr9 32bit -- 17 Jul 2019
Copyright (C) 1989-2019 Cadence Design Systems, Inc. All rights reserved worldwide. Cadence and Spectre are registered trademarks of Cadence Design Systems, Inc. All others are the property of their respective holders.

Includes RSA BSAFE(R) Cryptographic or Security Protocol Software from RSA Security, Inc.

User: amiya_1   Host: n02-hera.olympus.ece.tamu.edu   HostID: A8C00C02   PID: 181214
Memory  available: 356.9830 GB  physical: 540.7437 GB
Linux   : CentOS Linux release 7.6.1810 (Core) 
CPU Type: Intel(R) Xeon(R) CPU E5-2650 v3 @ 2.30GHz
        Socket: Processors [Frequency] (Hyperthreaded Processor)
        0:       0 [1200.1] ( 20 ),  2 [1201.1] ( 22 ),  4 [1258.2] ( 24 )
                 6 [1200.0] ( 26 ),  8 [1274.4] ( 28 ), 10 [1200.1] ( 30 )
                12 [1200.0] ( 32 ), 14 [1315.6] ( 34 ), 16 [1238.0] ( 36 )
                18 [1201.4] ( 38 )
        1:       1 [1200.3] ( 21 ),  3 [1267.5] ( 23 ),  5 [1200.1] ( 25 )
                 7 [1200.0] ( 27 ),  9 [1200.1] ( 29 ), 11 [1399.9] ( 31 )
                13 [1200.1] ( 33 ), 15 [1200.1] ( 35 ), 17 [2976.5] ( 37 )
                19 [1265.8] ( 39 )
        
System load averages (1min, 5min, 15min) : 0.8 %, 0.8 %, 0.9 %
Hyperthreading is enabled
Affinity is set by user to processors: 17 37 

Simulating `xor_delaytable..sp' on n02-hera.olympus.ece.tamu.edu at 2:11:38 PM, Sat Sep 28, 2019 (process id: 181214).
Current working directory: /home/grads/a/amiya_1/ECEN714/lab_01/cadence/cellcharacs
Environment variable:
    SPECTRE_DEFAULTS=-E
Command line:
    /opt/coe/cadence/SPECTRE181/tools.lnx86/bin/spectre  \
        xor_delaytable..sp

Loading /opt/coe/cadence/SPECTRE181/tools.lnx86/cmi/lib/5.0/libinfineon_sh.so ...
Loading /opt/coe/cadence/SPECTRE181/tools.lnx86/cmi/lib/5.0/libphilips_o_sh.so ...
Loading /opt/coe/cadence/SPECTRE181/tools.lnx86/cmi/lib/5.0/libphilips_sh.so ...
Loading /opt/coe/cadence/SPECTRE181/tools.lnx86/cmi/lib/5.0/libsparam_sh.so ...
Loading /opt/coe/cadence/SPECTRE181/tools.lnx86/cmi/lib/5.0/libstmodels_sh.so ...

Error found by spectre.
    ERROR (CMI-2012): Unable to open file `xor_delaytable..sp'.
        No such file or directory.

spectre terminated prematurely due to fatal error.
